<?xml version="1.0" encoding="UTF-8"?>

<!-- generated on 12/15/20 22:50:43 by Eclipse SUMO netedit Version 1.7.0
<configuration xmlns:xsi="http://www.w3.org/2001/XMLSchema-instance" xsi:noNamespaceSchemaLocation="http://sumo.dlr.de/xsd/netconvertConfiguration.xsd">

    <input>
        <sumo-net-file value="C:\Users\guytd\Desktop\Guy\SUMO\demo2.net.xml"/>
    </input>

    <output>
        <output-file value="C:\Users\guytd\Desktop\Guy\SUMO\demo2.net.xml"/>
    </output>

    <processing>
        <geometry.min-radius.fix.railways value="false"/>
        <geometry.max-grade.fix value="false"/>
        <offset.disable-normalization value="true"/>
        <lefthand value="false"/>
    </processing>

    <junctions>
        <no-turnarounds value="true"/>
        <junctions.corner-detail value="5"/>
        <junctions.limit-turn-speed value="5.5"/>
        <rectangular-lane-cut value="false"/>
    </junctions>

    <pedestrian>
        <walkingareas value="false"/>
    </pedestrian>

    <netedit>
        <route-files value="C:\Users\guytd\Desktop\Guy\SUMO\demo2.rou.xml"/>
    </netedit>

    <report>
        <aggregate-warnings value="5"/>
    </report>

</configuration>
-->

<net version="1.6" junctionCornerDetail="5" limitTurnSpeed="5.50" xmlns:xsi="http://www.w3.org/2001/XMLSchema-instance" xsi:noNamespaceSchemaLocation="http://sumo.dlr.de/xsd/net_file.xsd">

    <location netOffset="0.00,0.00" convBoundary="-42.24,-75.70,150.54,54.58" origBoundary="-10000000000.00,-10000000000.00,10000000000.00,10000000000.00" projParameter="!"/>

    <edge id=":j0_0" function="internal">
        <lane id=":j0_0_0" index="0" speed="6.35" length="13.00" shape="-35.50,56.18 -39.53,55.69 -41.49,54.22 -41.39,51.77 -39.22,48.35"/>
    </edge>
    <edge id=":j0_1" function="internal">
        <lane id=":j0_1_0" index="0" speed="4.04" length="4.33" shape="-36.74,50.37 -37.46,51.51 -37.50,52.33 -36.84,52.82 -35.50,52.98"/>
    </edge>
    <edge id=":j1_0" function="internal">
        <lane id=":j1_0_0" index="0" speed="13.89" length="11.22" shape="64.09,56.16 52.87,56.18"/>
    </edge>
    <edge id=":j1_1" function="internal">
        <lane id=":j1_1_0" index="0" speed="6.45" length="9.03" shape="58.56,47.34 58.86,49.80 59.88,51.56 61.62,52.61 64.08,52.96"/>
    </edge>
    <edge id=":j1_2" function="internal">
        <lane id=":j1_2_0" index="0" speed="7.39" length="11.76" shape="58.56,47.34 58.13,51.21 57.04,53.97 55.29,55.63 52.87,56.18"/>
    </edge>
    <edge id=":j1_3" function="internal">
        <lane id=":j1_3_0" index="0" speed="13.89" length="11.21" shape="52.87,52.98 64.08,52.96"/>
    </edge>
    <edge id=":j2_0" function="internal">
        <lane id=":j2_0_0" index="0" speed="11.03" length="27.56" shape="151.41,45.75 149.92,50.20 145.58,53.38 138.40,55.30 128.36,55.96"/>
    </edge>
    <edge id=":j2_1" function="internal">
        <lane id=":j2_1_0" index="0" speed="9.57" length="10.31" shape="151.41,45.75 149.52,50.58 144.61,52.04"/>
    </edge>
    <edge id=":j2_6" function="internal">
        <lane id=":j2_6_0" index="0" speed="9.57" length="15.95" shape="144.61,52.04 137.54,50.98 129.17,48.24"/>
    </edge>
    <edge id=":j2_2" function="internal">
        <lane id=":j2_2_0" index="0" speed="8.39" length="19.91" shape="130.30,45.25 138.11,47.81 143.69,48.74 147.06,48.04 148.21,45.71"/>
    </edge>
    <edge id=":j2_3" function="internal">
        <lane id=":j2_3_0" index="0" speed="6.11" length="15.03" shape="130.30,45.25 133.24,47.82 133.72,51.40 132.01,54.58 128.36,55.96"/>
    </edge>
    <edge id=":j2_4" function="internal">
        <lane id=":j2_4_0" index="0" speed="5.82" length="13.50" shape="128.35,52.76 133.15,52.47 134.89,51.61 133.56,50.20 129.17,48.24"/>
    </edge>
    <edge id=":j2_5" function="internal">
        <lane id=":j2_5_0" index="0" speed="10.04" length="22.66" shape="128.35,52.76 137.01,52.30 143.20,50.97 146.94,48.77 148.21,45.71"/>
    </edge>
    <edge id=":j3_0" function="internal">
        <lane id=":j3_0_0" index="0" speed="6.08" length="7.83" shape="147.28,-10.34 149.41,-10.04 150.93,-9.13 151.82,-7.61 152.10,-5.48"/>
    </edge>
    <edge id=":j3_1" function="internal">
        <lane id=":j3_1_0" index="0" speed="3.90" length="2.61" shape="148.90,-5.52 148.80,-6.23 148.51,-6.74 148.00,-7.04 147.29,-7.14"/>
    </edge>
    <edge id=":j4_0" function="internal">
        <lane id=":j4_0_0" index="0" speed="6.60" length="9.13" shape="65.44,-6.89 62.94,-6.54 61.15,-5.49 60.04,-3.75 59.63,-1.32"/>
    </edge>
    <edge id=":j4_1" function="internal">
        <lane id=":j4_1_0" index="0" speed="7.98" length="14.24" shape="65.44,-6.89 61.57,-7.43 58.81,-9.09 57.18,-11.85 56.67,-15.73"/>
    </edge>
    <edge id=":j4_2" function="internal">
        <lane id=":j4_2_0" index="0" speed="6.48" length="9.03" shape="59.87,-15.70 60.19,-13.24 61.23,-11.48 62.97,-10.44 65.43,-10.09"/>
    </edge>
    <edge id=":j4_3" function="internal">
        <lane id=":j4_3_0" index="0" speed="13.89" length="14.38" shape="59.87,-15.70 59.63,-1.32"/>
    </edge>
    <edge id=":j5_0" function="internal">
        <lane id=":j5_0_0" index="0" speed="6.81" length="17.18" shape="51.75,-68.81 55.59,-73.04 58.31,-73.96 59.91,-71.58 60.40,-65.88"/>
    </edge>
    <edge id=":j5_1" function="internal">
        <lane id=":j5_1_0" index="0" speed="4.29" length="5.73" shape="57.20,-65.92 57.04,-67.82 56.50,-68.61 55.60,-68.30 54.32,-66.89"/>
    </edge>
    <edge id=":j6_0" function="internal">
        <lane id=":j6_0_0" index="0" speed="8.01" length="10.73" shape="10.34,3.26 7.23,2.41 4.55,2.37 2.29,3.15 0.45,4.74"/>
    </edge>
    <edge id=":j6_1" function="internal">
        <lane id=":j6_1_0" index="0" speed="7.59" length="15.38" shape="10.34,3.26 6.48,1.13 4.61,-1.58 4.74,-4.86 6.85,-8.73"/>
    </edge>
    <edge id=":j6_2" function="internal">
        <lane id=":j6_2_0" index="0" speed="5.99" length="9.08" shape="9.41,-6.81 8.16,-4.53 8.09,-2.59 9.19,-0.99 11.47,0.26"/>
    </edge>
    <edge id=":j6_3" function="internal">
        <lane id=":j6_3_0" index="0" speed="13.89" length="14.62" shape="9.41,-6.81 0.45,4.74"/>
    </edge>
    <edge id=":j6_4" function="internal">
        <lane id=":j6_4_0" index="0" speed="13.89" length="14.49" shape="-2.03,2.72 6.85,-8.73"/>
    </edge>
    <edge id=":j6_5" function="internal">
        <lane id=":j6_5_0" index="0" speed="9.30" length="5.33" shape="-2.03,2.72 0.58,0.40 2.30,-0.26"/>
    </edge>
    <edge id=":j6_6" function="internal">
        <lane id=":j6_6_0" index="0" speed="9.30" length="9.41" shape="2.30,-0.26 3.70,-0.79 7.33,-0.83 11.47,0.26"/>
    </edge>

    <edge id="j0-j1" from="j0" to="j1" priority="-1">
        <lane id="j0-j1_0" index="0" speed="13.89" length="88.37" shape="-35.50,52.98 52.87,52.98"/>
    </edge>
    <edge id="j0-j6" from="j0" to="j6" priority="-1">
        <lane id="j0-j6_0" index="0" speed="13.89" length="58.87" shape="-39.22,48.35 -2.03,2.72"/>
    </edge>
    <edge id="j1-j0" from="j1" to="j0" priority="-1">
        <lane id="j1-j0_0" index="0" speed="13.89" length="88.37" shape="52.87,56.18 -35.50,56.18"/>
    </edge>
    <edge id="j1-j2" from="j1" to="j2" priority="-1">
        <lane id="j1-j2_0" index="0" speed="13.89" length="64.27" shape="64.08,52.96 128.35,52.76"/>
    </edge>
    <edge id="j2-j1" from="j2" to="j1" priority="-1">
        <lane id="j2-j1_0" index="0" speed="13.89" length="64.27" shape="128.36,55.96 64.09,56.16"/>
    </edge>
    <edge id="j2-j3" from="j2" to="j3" priority="-1">
        <lane id="j2-j3_0" index="0" speed="13.89" length="51.24" shape="148.21,45.71 148.90,-5.52"/>
    </edge>
    <edge id="j2-j6" from="j2" to="j6" priority="-1">
        <lane id="j2-j6_0" index="0" speed="13.89" length="127.06" shape="129.17,48.24 10.34,3.26"/>
    </edge>
    <edge id="j3-j2" from="j3" to="j2" priority="-1">
        <lane id="j3-j2_0" index="0" speed="13.89" length="51.24" shape="152.10,-5.48 151.41,45.75"/>
    </edge>
    <edge id="j3-j4" from="j3" to="j4" priority="-1">
        <lane id="j3-j4_0" index="0" speed="13.89" length="81.85" shape="147.29,-7.14 65.44,-6.89"/>
    </edge>
    <edge id="j4-j1" from="j4" to="j1" priority="-1">
        <lane id="j4-j1_0" index="0" speed="13.89" length="48.66" shape="59.63,-1.32 58.56,47.34"/>
    </edge>
    <edge id="j4-j3" from="j4" to="j3" priority="-1">
        <lane id="j4-j3_0" index="0" speed="13.89" length="81.85" shape="65.43,-10.09 147.28,-10.34"/>
    </edge>
    <edge id="j4-j5" from="j4" to="j5" priority="-1">
        <lane id="j4-j5_0" index="0" speed="13.89" length="50.19" shape="56.67,-15.73 57.20,-65.92"/>
    </edge>
    <edge id="j5-j4" from="j5" to="j4" priority="-1">
        <lane id="j5-j4_0" index="0" speed="13.89" length="50.19" shape="60.40,-65.88 59.87,-15.70"/>
    </edge>
    <edge id="j5-j6" from="j5" to="j6" priority="-1">
        <lane id="j5-j6_0" index="0" speed="13.89" length="75.01" shape="54.32,-66.89 9.41,-6.81"/>
    </edge>
    <edge id="j6-j0" from="j6" to="j0" priority="-1">
        <lane id="j6-j0_0" index="0" speed="13.89" length="58.87" shape="0.45,4.74 -36.74,50.37"/>
    </edge>
    <edge id="j6-j2" from="j6" to="j2" priority="-1">
        <lane id="j6-j2_0" index="0" speed="13.89" length="127.06" shape="11.47,0.26 130.30,45.25"/>
    </edge>
    <edge id="j6-j5" from="j6" to="j5" priority="-1">
        <lane id="j6-j5_0" index="0" speed="13.89" length="75.01" shape="6.85,-8.73 51.75,-68.81"/>
    </edge>

    <junction id="j0" type="priority" x="-42.24" y="54.58" incLanes="j1-j0_0 j6-j0_0" intLanes=":j0_0_0 :j0_1_0" shape="-35.50,57.78 -35.50,51.38 -40.46,47.34 -42.69,50.53 -43.70,53.14 -43.48,55.17 -42.04,56.62 -39.38,57.49">
        <request index="0" response="00" foes="00" cont="0"/>
        <request index="1" response="00" foes="00" cont="0"/>
    </junction>
    <junction id="j1" type="priority" x="56.80" y="54.58" incLanes="j2-j1_0 j4-j1_0 j0-j1_0" intLanes=":j1_0_0 :j1_1_0 :j1_2_0 :j1_3_0" shape="64.09,57.76 64.07,51.36 61.86,50.92 61.09,50.37 60.56,49.59 60.24,48.59 60.16,47.37 56.96,47.30 56.47,49.57 55.89,50.36 55.10,50.93 54.10,51.27 52.87,51.38 52.87,57.78">
        <request index="0" response="0000" foes="0100" cont="0"/>
        <request index="1" response="1000" foes="1000" cont="0"/>
        <request index="2" response="1001" foes="1001" cont="0"/>
        <request index="3" response="0000" foes="0110" cont="0"/>
    </junction>
    <junction id="j2" type="priority" x="149.70" y="54.30" incLanes="j3-j2_0 j6-j2_0 j1-j2_0" intLanes=":j2_0_0 :j2_6_0 :j2_2_0 :j2_3_0 :j2_4_0 :j2_5_0" shape="153.01,45.78 146.61,45.69 144.84,47.25 142.65,47.21 139.59,46.61 135.67,45.45 130.87,43.75 128.60,49.74 128.35,51.16 128.37,57.56 135.85,57.22 141.99,56.22 146.77,54.58 150.21,52.29 152.29,49.36">
        <request index="0" response="000000" foes="001000" cont="0"/>
        <request index="1" response="110000" foes="111000" cont="1"/>
        <request index="2" response="100000" foes="100000" cont="0"/>
        <request index="3" response="100011" foes="100011" cont="0"/>
        <request index="4" response="000000" foes="000010" cont="0"/>
        <request index="5" response="000000" foes="001110" cont="0"/>
    </junction>
    <junction id="j3" type="priority" x="150.54" y="-8.75" incLanes="j4-j3_0 j2-j3_0" intLanes=":j3_0_0 :j3_1_0" shape="147.28,-11.94 147.30,-5.54 153.70,-5.45 153.02,-9.07 152.14,-10.33 150.88,-11.23 149.26,-11.77">
        <request index="0" response="00" foes="00" cont="0"/>
        <request index="1" response="00" foes="00" cont="0"/>
    </junction>
    <junction id="j4" type="priority" x="58.19" y="-8.47" incLanes="j3-j4_0 j5-j4_0" intLanes=":j4_0_0 :j4_1_0 :j4_2_0 :j4_3_0" shape="65.44,-5.29 65.42,-11.69 63.21,-12.13 62.43,-12.68 61.89,-13.46 61.56,-14.46 61.47,-15.68 55.07,-15.75 55.27,-12.64 55.84,-10.38 56.58,-8.55 57.32,-6.72 57.86,-4.46 58.03,-1.35 61.23,-1.28 61.74,-3.50 62.33,-4.28 63.14,-4.84 64.18,-5.18">
        <request index="0" response="0000" foes="1000" cont="0"/>
        <request index="1" response="0000" foes="1000" cont="0"/>
        <request index="2" response="0000" foes="0000" cont="0"/>
        <request index="3" response="0011" foes="0011" cont="0"/>
    </junction>
    <junction id="j5" type="priority" x="58.90" y="-75.70" incLanes="j6-j5_0 j4-j5_0" intLanes=":j5_0_0 :j5_1_0" shape="50.47,-69.77 55.60,-65.93 62.00,-65.87 61.73,-71.42 60.81,-75.01 59.22,-76.64 56.97,-76.31 54.05,-74.02">
        <request index="0" response="00" foes="00" cont="0"/>
        <request index="1" response="00" foes="00" cont="0"/>
    </junction>
    <junction id="j6" type="priority" x="3.19" y="-1.16" incLanes="j2-j6_0 j5-j6_0 j0-j6_0" intLanes=":j6_0_0 :j6_1_0 :j6_2_0 :j6_3_0 :j6_4_0 :j6_6_0" shape="9.77,4.75 12.04,-1.23 10.23,-2.37 9.83,-3.10 9.78,-3.91 10.06,-4.83 10.69,-5.85 5.57,-9.68 -3.27,1.71 1.69,5.75 3.71,4.26 4.97,3.95 6.40,3.93 8.00,4.20">
        <request index="0" response="001000" foes="001000" cont="0"/>
        <request index="1" response="111000" foes="111000" cont="0"/>
        <request index="2" response="000000" foes="100000" cont="0"/>
        <request index="3" response="000000" foes="100011" cont="0"/>
        <request index="4" response="000000" foes="000010" cont="0"/>
        <request index="5" response="001100" foes="001110" cont="1"/>
    </junction>

    <junction id=":j2_6_0" type="internal" x="144.61" y="52.04" incLanes=":j2_1_0 j1-j2_0" intLanes=":j2_3_0 :j2_4_0 :j2_5_0"/>
    <junction id=":j6_6_0" type="internal" x="2.30" y="-0.26" incLanes=":j6_5_0 j5-j6_0" intLanes=":j6_1_0 :j6_2_0 :j6_3_0"/>

    <connection from="j0-j1" to="j1-j2" fromLane="0" toLane="0" via=":j1_3_0" dir="s" state="M"/>
    <connection from="j0-j6" to="j6-j5" fromLane="0" toLane="0" via=":j6_4_0" dir="s" state="M"/>
    <connection from="j0-j6" to="j6-j2" fromLane="0" toLane="0" via=":j6_5_0" dir="l" state="m"/>
    <connection from="j1-j0" to="j0-j6" fromLane="0" toLane="0" via=":j0_0_0" dir="l" state="M"/>
    <connection from="j1-j2" to="j2-j6" fromLane="0" toLane="0" via=":j2_4_0" dir="r" state="M"/>
    <connection from="j1-j2" to="j2-j3" fromLane="0" toLane="0" via=":j2_5_0" dir="R" state="M"/>
    <connection from="j2-j1" to="j1-j0" fromLane="0" toLane="0" via=":j1_0_0" dir="s" state="M"/>
    <connection from="j2-j3" to="j3-j4" fromLane="0" toLane="0" via=":j3_1_0" dir="r" state="M"/>
    <connection from="j2-j6" to="j6-j0" fromLane="0" toLane="0" via=":j6_0_0" dir="r" state="m"/>
    <connection from="j2-j6" to="j6-j5" fromLane="0" toLane="0" via=":j6_1_0" dir="l" state="m"/>
    <connection from="j3-j2" to="j2-j1" fromLane="0" toLane="0" via=":j2_0_0" dir="L" state="M"/>
    <connection from="j3-j2" to="j2-j6" fromLane="0" toLane="0" via=":j2_1_0" dir="l" state="m"/>
    <connection from="j3-j4" to="j4-j1" fromLane="0" toLane="0" via=":j4_0_0" dir="r" state="M"/>
    <connection from="j3-j4" to="j4-j5" fromLane="0" toLane="0" via=":j4_1_0" dir="l" state="M"/>
    <connection from="j4-j1" to="j1-j2" fromLane="0" toLane="0" via=":j1_1_0" dir="r" state="m"/>
    <connection from="j4-j1" to="j1-j0" fromLane="0" toLane="0" via=":j1_2_0" dir="l" state="m"/>
    <connection from="j4-j3" to="j3-j2" fromLane="0" toLane="0" via=":j3_0_0" dir="l" state="M"/>
    <connection from="j4-j5" to="j5-j6" fromLane="0" toLane="0" via=":j5_1_0" dir="r" state="M"/>
    <connection from="j5-j4" to="j4-j3" fromLane="0" toLane="0" via=":j4_2_0" dir="r" state="M"/>
    <connection from="j5-j4" to="j4-j1" fromLane="0" toLane="0" via=":j4_3_0" dir="s" state="m"/>
    <connection from="j5-j6" to="j6-j2" fromLane="0" toLane="0" via=":j6_2_0" dir="r" state="M"/>
    <connection from="j5-j6" to="j6-j0" fromLane="0" toLane="0" via=":j6_3_0" dir="s" state="M"/>
    <connection from="j6-j0" to="j0-j1" fromLane="0" toLane="0" via=":j0_1_0" dir="r" state="M"/>
    <connection from="j6-j2" to="j2-j3" fromLane="0" toLane="0" via=":j2_2_0" dir="r" state="m"/>
    <connection from="j6-j2" to="j2-j1" fromLane="0" toLane="0" via=":j2_3_0" dir="l" state="m"/>
    <connection from="j6-j5" to="j5-j4" fromLane="0" toLane="0" via=":j5_0_0" dir="l" state="M"/>

    <connection from=":j0_0" to="j0-j6" fromLane="0" toLane="0" dir="l" state="M"/>
    <connection from=":j0_1" to="j0-j1" fromLane="0" toLane="0" dir="r" state="M"/>
    <connection from=":j1_0" to="j1-j0" fromLane="0" toLane="0" dir="s" state="M"/>
    <connection from=":j1_1" to="j1-j2" fromLane="0" toLane="0" dir="r" state="M"/>
    <connection from=":j1_2" to="j1-j0" fromLane="0" toLane="0" dir="l" state="M"/>
    <connection from=":j1_3" to="j1-j2" fromLane="0" toLane="0" dir="s" state="M"/>
    <connection from=":j2_0" to="j2-j1" fromLane="0" toLane="0" dir="L" state="M"/>
    <connection from=":j2_1" to="j2-j6" fromLane="0" toLane="0" via=":j2_6_0" dir="l" state="m"/>
    <connection from=":j2_6" to="j2-j6" fromLane="0" toLane="0" dir="l" state="M"/>
    <connection from=":j2_2" to="j2-j3" fromLane="0" toLane="0" dir="r" state="M"/>
    <connection from=":j2_3" to="j2-j1" fromLane="0" toLane="0" dir="l" state="M"/>
    <connection from=":j2_4" to="j2-j6" fromLane="0" toLane="0" dir="r" state="M"/>
    <connection from=":j2_5" to="j2-j3" fromLane="0" toLane="0" dir="R" state="M"/>
    <connection from=":j3_0" to="j3-j2" fromLane="0" toLane="0" dir="l" state="M"/>
    <connection from=":j3_1" to="j3-j4" fromLane="0" toLane="0" dir="r" state="M"/>
    <connection from=":j4_0" to="j4-j1" fromLane="0" toLane="0" dir="r" state="M"/>
    <connection from=":j4_1" to="j4-j5" fromLane="0" toLane="0" dir="l" state="M"/>
    <connection from=":j4_2" to="j4-j3" fromLane="0" toLane="0" dir="r" state="M"/>
    <connection from=":j4_3" to="j4-j1" fromLane="0" toLane="0" dir="s" state="M"/>
    <connection from=":j5_0" to="j5-j4" fromLane="0" toLane="0" dir="l" state="M"/>
    <connection from=":j5_1" to="j5-j6" fromLane="0" toLane="0" dir="r" state="M"/>
    <connection from=":j6_0" to="j6-j0" fromLane="0" toLane="0" dir="r" state="M"/>
    <connection from=":j6_1" to="j6-j5" fromLane="0" toLane="0" dir="l" state="M"/>
    <connection from=":j6_2" to="j6-j2" fromLane="0" toLane="0" dir="r" state="M"/>
    <connection from=":j6_3" to="j6-j0" fromLane="0" toLane="0" dir="s" state="M"/>
    <connection from=":j6_4" to="j6-j5" fromLane="0" toLane="0" dir="s" state="M"/>
    <connection from=":j6_5" to="j6-j2" fromLane="0" toLane="0" via=":j6_6_0" dir="l" state="m"/>
    <connection from=":j6_6" to="j6-j2" fromLane="0" toLane="0" dir="l" state="M"/>

</net>
