<?xml version="1.0" encoding="UTF-8"?>

<!-- generated on 12/19/20 14:38:26 by Eclipse SUMO GUI Version 1.7.0
-->

<configuration xmlns:xsi="http://www.w3.org/2001/XMLSchema-instance" xsi:noNamespaceSchemaLocation="http://sumo.dlr.de/xsd/sumoConfiguration.xsd">

    <input>
        <net-file value="C:\Users\guytd\Desktop\Guy\SUMO\demo2.net.xml"/>
        <route-files value="C:\Users\guytd\Desktop\Guy\SUMO\demo2.rou.xml"/>
    </input>

</configuration>
